~{N}-(6-isopropyl-1,3-benzothiazol-2-yl)butanamide
     RDKit          3D

 36 37  0  0  0  0  0  0  0  0999 V2000
   -0.9117   -3.5508   -3.2933 C   0  0  0  0  0  0  0  0  0  0  0  0
   -2.3272   -3.9429   -2.8930 C   0  0  0  0  0  0  0  0  0  0  0  0
   -2.8686   -3.0917   -1.7464 C   0  0  0  0  0  0  0  0  0  0  0  0
   -4.2849   -3.4581   -1.3200 C   0  0  0  0  0  0  0  0  0  0  0  0
   -4.9087   -4.3725   -1.8482 O   0  0  0  0  0  0  0  0  0  0  0  0
   -4.7075   -2.6419   -0.2745 N   0  0  0  0  0  0  0  0  0  0  0  0
   -5.9464   -2.6866    0.4082 C   0  0  0  0  0  0  0  0  0  0  0  0
   -6.3454   -1.9182    1.3946 N   0  0  0  0  0  0  0  0  0  0  0  0
   -7.6247   -2.2880    1.7834 C   0  0  0  0  0  0  0  0  0  0  0  0
   -8.3868   -1.6936    2.8124 C   0  0  0  0  0  0  0  0  0  0  0  0
   -9.6685   -2.1757    3.0932 C   0  0  0  0  0  0  0  0  0  0  0  0
  -10.1994   -3.2361    2.3671 C   0  0  0  0  0  0  0  0  0  0  0  0
   -9.4664   -3.8422    1.3437 C   0  0  0  0  0  0  0  0  0  0  0  0
   -8.1795   -3.3529    1.0671 C   0  0  0  0  0  0  0  0  0  0  0  0
   -7.0468   -3.8856   -0.1186 S   0  0  0  0  0  0  0  0  0  0  0  0
  -11.5705   -3.7348    2.6827 C   0  0  0  0  0  0  0  0  0  0  0  0
  -11.5677   -5.1986    3.1608 C   0  0  0  0  0  0  0  0  0  0  0  0
  -12.5418   -3.5726    1.4987 C   0  0  0  0  0  0  0  0  0  0  0  0
   -0.5396   -4.1696   -4.1150 H   0  0  0  0  0  0  0  0  0  0  0  0
   -0.2325   -3.6757   -2.4440 H   0  0  0  0  0  0  0  0  0  0  0  0
   -0.8701   -2.5028   -3.6073 H   0  0  0  0  0  0  0  0  0  0  0  0
   -2.3183   -4.9928   -2.5772 H   0  0  0  0  0  0  0  0  0  0  0  0
   -2.9856   -3.8778   -3.7667 H   0  0  0  0  0  0  0  0  0  0  0  0
   -2.8341   -2.0296   -2.0165 H   0  0  0  0  0  0  0  0  0  0  0  0
   -2.2251   -3.2306   -0.8687 H   0  0  0  0  0  0  0  0  0  0  0  0
   -4.0588   -1.9273    0.0489 H   0  0  0  0  0  0  0  0  0  0  0  0
   -7.9818   -0.8649    3.3865 H   0  0  0  0  0  0  0  0  0  0  0  0
  -10.2459   -1.7102    3.8880 H   0  0  0  0  0  0  0  0  0  0  0  0
   -9.8811   -4.6702    0.7754 H   0  0  0  0  0  0  0  0  0  0  0  0
  -12.0013   -3.1440    3.5129 H   0  0  0  0  0  0  0  0  0  0  0  0
  -12.5798   -5.5507    3.3885 H   0  0  0  0  0  0  0  0  0  0  0  0
  -10.9615   -5.3229    4.0647 H   0  0  0  0  0  0  0  0  0  0  0  0
  -11.1529   -5.8534    2.3863 H   0  0  0  0  0  0  0  0  0  0  0  0
  -13.5362   -3.9480    1.7651 H   0  0  0  0  0  0  0  0  0  0  0  0
  -12.1977   -4.1293    0.6203 H   0  0  0  0  0  0  0  0  0  0  0  0
  -12.6487   -2.5226    1.2054 H   0  0  0  0  0  0  0  0  0  0  0  0
  1  2  1  0
  2  3  1  0
  3  4  1  0
  4  5  2  0
  4  6  1  0
  6  7  1  0
  7 15  1  0
  7  8  2  0
  8  9  1  0
  9 14  2  0
  9 10  1  0
 10 11  2  0
 11 12  1  0
 12 13  2  0
 13 14  1  0
 14 15  1  0
 12 16  1  0
 16 17  1  0
 16 18  1  0
  1 19  1  0
  1 20  1  0
  1 21  1  0
  2 22  1  0
  2 23  1  0
  3 24  1  0
  3 25  1  0
  6 26  1  0
 10 27  1  0
 11 28  1  0
 13 29  1  0
 16 30  1  0
 17 31  1  0
 17 32  1  0
 17 33  1  0
 18 34  1  0
 18 35  1  0
 18 36  1  0
M  END
>  <dihedral_atoms>  (1) 
(14, 6, 5, 3)

>  <min_dihedral_angle_deg>  (1) 
0.0000

>  <min_relative_energy_kJ_mol>  (1) 
0.000000

>  <method>  (1) 
fennix-bio1-medium

$$$$
